# generated using pymatgen
data_Ca4SbTe2Br
_symmetry_space_group_name_H-M   Fmm2
_cell_length_a   8.93873488
_cell_length_b   12.91101062
_cell_length_c   8.93829763
_cell_angle_alpha   90.00000000
_cell_angle_beta   90.00000000
_cell_angle_gamma   90.00000000
_symmetry_Int_Tables_number   42
_chemical_formula_structural   Ca4SbTe2Br
_chemical_formula_sum   'Ca16 Sb4 Te8 Br4'
_cell_volume   1031.55195561
_cell_formula_units_Z   4
loop_
 _symmetry_equiv_pos_site_id
 _symmetry_equiv_pos_as_xyz
  1  'x, y, z'
  2  '-x, -y, z'
  3  '-x, y, z'
  4  'x, -y, z'
  5  'x, y+1/2, z+1/2'
  6  '-x, -y+1/2, z+1/2'
  7  '-x, y+1/2, z+1/2'
  8  'x, -y+1/2, z+1/2'
  9  'x+1/2, y, z+1/2'
  10  '-x+1/2, -y, z+1/2'
  11  '-x+1/2, y, z+1/2'
  12  'x+1/2, -y, z+1/2'
  13  'x+1/2, y+1/2, z'
  14  '-x+1/2, -y+1/2, z'
  15  '-x+1/2, y+1/2, z'
  16  'x+1/2, -y+1/2, z'
loop_
 _atom_site_type_symbol
 _atom_site_label
 _atom_site_symmetry_multiplicity
 _atom_site_fract_x
 _atom_site_fract_y
 _atom_site_fract_z
 _atom_site_occupancy
  Ca  Ca0  8  0.00000000  0.23714834  0.06337166  1
  Ca  Ca1  8  0.24969923  0.00000000  0.81223345  1
  Sb  Sb2  4  0.00000000  0.00000000  0.06251792  1
  Te  Te3  8  0.25000000  0.25000000  0.31331254  1
  Br  Br4  4  0.00000000  0.00000000  0.56232176  1
